
*Node,NSET=Nall
1,0.000000000000e+00,0.000000000000e+00,0.000000000000e+00
2,0.000000000000e+00,3.000000000000e+00,0.000000000000e+00
3,6.000000000000e+00,3.000000000000e+00,0.000000000000e+00
4,6.000000000000e+00,0.000000000000e+00,0.000000000000e+00
5,0.000000000000e+00,1.000000000000e+00,0.000000000000e+00
6,0.000000000000e+00,2.000000000000e+00,0.000000000000e+00
7,0.000000000000e+00,5.000000000000e-01,0.000000000000e+00
8,0.000000000000e+00,1.500000000000e+00,0.000000000000e+00
9,0.000000000000e+00,2.500000000000e+00,0.000000000000e+00
10,1.000000000000e+00,3.000000000000e+00,0.000000000000e+00
11,2.000000000000e+00,3.000000000000e+00,0.000000000000e+00
12,3.000000000000e+00,3.000000000000e+00,0.000000000000e+00
13,4.000000000000e+00,3.000000000000e+00,0.000000000000e+00
14,5.000000000000e+00,3.000000000000e+00,0.000000000000e+00
15,5.000000000000e-01,3.000000000000e+00,0.000000000000e+00
16,1.500000000000e+00,3.000000000000e+00,0.000000000000e+00
17,2.500000000000e+00,3.000000000000e+00,0.000000000000e+00
18,3.500000000000e+00,3.000000000000e+00,0.000000000000e+00
19,4.500000000000e+00,3.000000000000e+00,0.000000000000e+00
20,5.500000000000e+00,3.000000000000e+00,0.000000000000e+00
** ... 5 like lines cut
*Element, type=B32, ELSET=ln1
1, 1, 7, 5
2, 5, 8, 6
3, 6, 9, 2
*Element, type=B32, ELSET=ln2
4, 2, 15, 10
5, 10, 16, 11
6, 11, 17, 12
7, 12, 18, 13
8, 13, 19, 14
9, 14, 20, 3
*Element, type=B32, ELSET=ln3
10, 3, 23, 21
11, 21, 24, 22
12, 22, 25, 4



*MATERIAL,NAME=wood
*ELASTIC
0.700E+10,0.49


** beam section card for beam elements
*BEAM SECTION,MATERIAL=wood,ELSET=ln1,OFFSET1=0,SECTION=RECT
0.1,0.18

*BEAM SECTION,MATERIAL=wood,ELSET=ln2,OFFSET1=0,SECTION=RECT
0.1,0.25

*BEAM SECTION,MATERIAL=wood,ELSET=ln3,OFFSET1=0,SECTION=RECT
0.1,0.18

*BOUNDARY
1,1,3,0
4,1,3,0
2,3,3,0
3,3,3,0
12,3,3,0

*STEP
*BUCKLE 
3

**Misc. Load applied

*CLOAD
2,2,-1e5


*EL FILE,OUTPUT=3D
S
*NODE FILE
U 
*END STEP   
